/*--------------------------------*- C++ -*----------------------------------*\
| =========                 |                                                 |
| \\      /  F ield         | OpenFOAM Extend Project: Open Source CFD        |
|  \\    /   O peration     | Version:  1.6-ext                               |
|   \\  /    A nd           | Web:      www.extend-project.de                 |
|    \\/     M anipulation  |                                                 |
\*---------------------------------------------------------------------------*/
FoamFile
{
    version     2.0;
    format      ascii;
    class       dictionary;
    location    "constant";
    object      transportProperties;
}
// * * * * * * * * * * * * * * * * * * * * * * * * * * * * * * * * * * * * * //

D1              D1 [ 0 2 -1 0 0 0 0 ] 0.05;
D2              D2 [ 0 2 -1 0 0 0 0 ] 0.05;
D3              D3 [ 0 2 -1 0 0 0 0 ] 0.025;
D4              D4 [ 0 2 -1 0 0 0 0 ] 0.001;
D5              D5 [ 0 2 -1 0 0 0 0 ] 0.0;
B              B [ 0 0 0 0 0 0 0 ] 0.514;
BE              BE [ 0 0 -1 0 0 0 0 ] 0.250;
BI              BI [ 0 0 -1 0 0 0 0 ] 1.00;
BV              BV [ 0 0 0 0 0 0 0 ] 0.10;
r              r [ 0 0 -1 0 0 0 0 ] 7.14e-05;
alpha              alpha [ 0 0 -1 0 0 0 0 ] 9.3e-06;
phi              phi [ 0 0 -1 0 0 0 0 ] 0.001;
sigma              sigma [ 0 0 -1 0 0 0 0 ] 0.50;
gamma              gamma [ 0 0 -1 0 0 0 0 ] 0.20;
delta              delta [ 0 0 -1 0 0 0 0 ] 0.00273972602; // 1/365
mu              mu [ 0 2 -1 0 0 0 0 ] 5.5e-08;
kappa              kappa [ 0 0 -1 0 0 0 0 ] 1.857e-04;
theta              theta [ 0 0 -1 0 0 0 0 ] 0.00273972602;


// ************************************************************************* //
